   16
FINAL HEAT OF FORMATION =   -17.931438
 C    -1.373399     0.026748    -0.544932
 C    -0.066267    -0.162721     0.161551
 C     0.234522     0.419912     1.309757
 C    -0.697982     1.335520     2.042120
 H    -0.351288     2.367688     1.916785
 H    -0.662114     1.114775     3.112293
 H     1.199357     0.257806     1.771080
 H     0.640260    -0.826614    -0.317347
 H    -1.196627     0.141377    -1.617538
 H    -1.979183    -0.876917    -0.415450
 C    -2.127155     1.237703    -0.001475
 C    -2.127241     1.203094     1.522887
 H    -2.548469     0.253316     1.859164
 H    -2.746906     2.007906     1.923311
 H    -3.150069     1.244318    -0.383459
 H    -1.634917     2.152446    -0.338743

